16

 C     0.000000     0.000000     0.000000
 C     0.000000     0.000000     1.335000
 H     0.943102     0.000000    -0.544500
 H     0.943102     0.000000     1.879500
 H    -0.943102     0.000000     1.879500
 H    -0.943102     0.000000    -0.544500
 C     0.000000    10.000000     0.000000
 C     0.000000    10.000000     1.335000
 H     0.943102    10.000000    -0.544500
 H     0.943102    10.000000     1.879500
 H    -0.943102    10.000000     1.879500
 C    -1.255737    10.000000    -0.725000
 C    -2.411881    10.000000    -0.057500
 H    -1.255737    10.000000    -1.814000
 H    -3.354982    10.000000    -0.602000
 H    -2.411881    10.000000     1.031500
